Auto-Transcript Start Time:  11:23:38, 12 Jan 2025 Mitteleuropäische Zeit 
Current Directory: "D:\vortexSheddingEE\test\linuxTest"

              Welcome to ANSYS Fluent 2024 R2

              Copyright 1987-2024 ANSYS, Inc. All Rights Reserved.
              Unauthorized use, distribution or duplication is prohibited.
              This product is subject to U.S. laws governing export and re-export.
              For full Legal Notice, see documentation.

Build Time: May 13 2024 11:17:42 EST  Build Id: 10192  
 
Connected License Server List:	<Shared_Web_License_Server>

     --------------------------------------------------------------
     This is a student version of ANSYS FLUENT. Usage of this product
     license is limited to the terms and conditions specified in your ANSYS
     license form, additional terms section.
     --------------------------------------------------------------
Host spawning Node 0 on machine "Nicis-Desktop" (win64).

Unable to spawn node: license not available.
0: mpt_write: error: write failed trying to write 4 bytes: No error

===================================================================================
=   BAD TERMINATION OF ONE OF YOUR APPLICATION PROCESSES
=   RANK 0 PID 14644 RUNNING AT Nicis-Desktop
=   EXIT STATUS: -1073740791 (c0000409)
===================================================================================

===================================================================================
=   BAD TERMINATION OF ONE OF YOUR APPLICATION PROCESSES
=   RANK 1 PID 33516 RUNNING AT Nicis-Desktop
=   EXIT STATUS: -1 (ffffffff)
===================================================================================

===================================================================================
=   BAD TERMINATION OF ONE OF YOUR APPLICATION PROCESSES
=   RANK 2 PID 31536 RUNNING AT Nicis-Desktop
=   EXIT STATUS: -1 (ffffffff)
===================================================================================

===================================================================================
=   BAD TERMINATION OF ONE OF YOUR APPLICATION PROCESSES
=   RANK 3 PID 22944 RUNNING AT Nicis-Desktop
=   EXIT STATUS: -1 (ffffffff)
===================================================================================

===================================================================================
=   BAD TERMINATION OF ONE OF YOUR APPLICATION PROCESSES
=   RANK 4 PID 34368 RUNNING AT Nicis-Desktop
=   EXIT STATUS: -1 (ffffffff)
===================================================================================

===================================================================================
=   BAD TERMINATION OF ONE OF YOUR APPLICATION PROCESSES
=   RANK 5 PID 12060 RUNNING AT Nicis-Desktop
=   EXIT STATUS: -1 (ffffffff)
===================================================================================
